Version 4.1
SHEET 1 4196 2548
WIRE 1136 464 1088 464
WIRE 1088 480 1088 464
WIRE 1184 512 1184 480
WIRE 1296 512 1184 512
WIRE 1344 512 1344 480
WIRE 1344 512 1296 512
WIRE 1120 544 976 544
WIRE 1184 544 1184 512
WIRE 1184 544 1120 544
WIRE 1264 544 1184 544
WIRE 1408 544 1264 544
WIRE 976 576 976 544
WIRE 1120 576 1120 544
WIRE 1264 576 1264 544
WIRE 1408 576 1408 544
WIRE 1024 624 976 624
WIRE 1168 624 1120 624
WIRE 1296 624 1264 624
WIRE 1456 624 1408 624
WIRE 1264 656 1264 624
WIRE 976 688 976 672
WIRE 1024 688 1024 624
WIRE 1024 688 976 688
WIRE 1120 688 1120 672
WIRE 1120 688 1024 688
WIRE 1168 688 1168 624
WIRE 1168 688 1120 688
WIRE 1184 688 1168 688
WIRE 1264 688 1264 672
WIRE 1264 688 1184 688
WIRE 1296 688 1296 624
WIRE 1296 688 1264 688
WIRE 1408 688 1408 672
WIRE 1408 688 1296 688
WIRE 1456 688 1456 624
WIRE 1456 688 1408 688
WIRE 1184 720 1184 688
FLAG 800 352 0
FLAG 800 272 A
FLAG 800 96 Vdd
FLAG 768 560 0
FLAG 656 480 C
FLAG 768 480 D
FLAG 1184 720 0
FLAG 1184 384 Vdd
FLAG 1088 480 0
FLAG 928 656 A
FLAG 1072 656 B
FLAG 1216 656 C
FLAG 1360 656 D
FLAG 1344 416 0
FLAG 1184 432 Vdd
FLAG 656 560 0
FLAG 656 272 B
FLAG 656 352 0
FLAG 800 176 0
FLAG 1296 512 Vout
SYMBOL voltage 800 80 R0
WINDOW 123 0 0 Left 0
WINDOW 39 0 0 Left 0
SYMATTR InstName V1
SYMATTR Value 1.8
SYMBOL voltage 656 256 R0
WINDOW 3 78 187 VLeft 2
WINDOW 123 0 0 Left 0
WINDOW 39 0 0 Left 0
SYMATTR Value PULSE(0 1.8 0 0.1n 0.1n 1n 4n)
SYMATTR InstName V2
SYMBOL voltage 800 256 R0
WINDOW 3 91 187 VLeft 2
WINDOW 123 0 0 Left 0
WINDOW 39 0 0 Left 0
SYMATTR Value PULSE(0 1.8 0 0.1n 0.1n 1n 2n)
SYMATTR InstName V3
SYMBOL voltage 768 464 R0
WINDOW 3 64 274 VLeft 2
WINDOW 123 0 0 Left 0
WINDOW 39 0 0 Left 0
SYMATTR Value PULSE(0 1.8 0 0.1n 0.1n 1n 16n)
SYMATTR InstName V4
SYMBOL voltage 656 464 R0
WINDOW 3 -48 260 VLeft 2
WINDOW 123 0 0 Left 0
WINDOW 39 0 0 Left 0
SYMATTR Value PULSE(0 1.8 0 0.1n 0.1n 1n 8n)
SYMATTR InstName V5
SYMBOL nmos4 928 576 R0
SYMATTR InstName M5
SYMATTR Value CMOSN
SYMATTR Value2 l=180n w=4u
SYMBOL nmos4 1072 576 R0
SYMATTR InstName M6
SYMATTR Value CMOSN
SYMATTR Value2 l=180n w=4u
SYMBOL nmos4 1216 576 R0
SYMATTR InstName M7
SYMATTR Value CMOSN
SYMATTR Value2 l=180n w=4u
SYMBOL nmos4 1360 576 R0
SYMATTR InstName M8
SYMATTR Value CMOSN
SYMATTR Value2 l=180n w=4u
SYMBOL pmos4 1136 384 R0
WINDOW 0 68 19 Left 2
WINDOW 3 57 81 Left 2
SYMATTR InstName M10
SYMATTR Value CMOSP
SYMATTR Value2 l=180n w=2u
SYMBOL cap 1328 416 R0
SYMATTR InstName C2
SYMATTR Value 1f
TEXT 2008 -88 Left 2 !*  T58F SPICE BSIM3 VERSION 3.1 PARAMETERS\n* \n* SPICE 3f5 Level 8, Star-HSPICE Level 49, UTMOST Level 8\n* \n* DATE: Oct 31/05\n* LOT: T58F                  WAF: 9005\n* Temperature_parameters=Default\n \n.MODEL CMOSN NMOS (                                LEVEL   = 49\n+VERSION = 3.1            TNOM    = 27             TOX     = 4.1E-9\n+XJ      = 1E-7           NCH     = 2.3549E17      VTH0    = 0.3662473\n+K1      = 0.5864999      K2      = 1.127266E-3    K3      = 1E-3\n+K3B     = 0.0294061      W0      = 1E-7           NLX     = 1.630684E-7\n+DVT0W   = 0              DVT1W   = 0              DVT2W   = 0\n+DVT0    = 1.2064649      DVT1    = 0.4215486      DVT2    = 0.0197749\n+U0      = 273.8094484    UA      = -1.40499E-9    UB      = 2.408323E-18\n+UC      = 6.504826E-11   VSAT    = 1.355009E5     A0      = 2\n+AGS     = 0.4449958      B0      = 1.901075E-7    B1      = 4.99995E-6\n+KETA    = -0.0164863     A1      = 3.868769E-4    A2      = 0.4640272\n+RDSW    = 123.3376355    PRWG    = 0.5            PRWB    = -0.197728\n+WR      = 1              WINT    = 0              LINT    = 1.690044E-8\n+XL      = 0              XW      = -1E-8          DWG     = -4.728719E-9\n+DWB     = -2.452411E-9   VOFF    = -0.0948017     NFACTOR = 2.1860065\n+CIT     = 0              CDSC    = 2.4E-4         CDSCD   = 0\n+CDSCB   = 0              ETA0    = 2.230928E-3    ETAB    = 6.028975E-5\n+DSUB    = 0.0145467      PCLM    = 1.3822069      PDIBLC1 = 0.1762787\n+PDIBLC2 = 1.66653E-3     PDIBLCB = -0.1           DROUT   = 0.7694691\n+PSCBE1  = 8.91287E9      PSCBE2  = 7.349607E-9    PVAG    = 1.685917E-3\n+DELTA   = 0.01           RSH     = 6.7            MOBMOD  = 1\n+PRT     = 0              UTE     = -1.5           KT1     = -0.11\n+KT1L    = 0              KT2     = 0.022          UA1     = 4.31E-9\n+UB1     = -7.61E-18      UC1     = -5.6E-11       AT      = 3.3E4\n+WL      = 0              WLN     = 1              WW      = 0\n+WWN     = 1              WWL     = 0              LL      = 0\n+LLN     = 1              LW      = 0              LWN     = 1\n+LWL     = 0              CAPMOD  = 2              XPART   = 0.5\n+CGDO    = 8.23E-10       CGSO    = 8.23E-10       CGBO    = 1E-12\n+CJ      = 9.466429E-4    PB      = 0.8            MJ      = 0.3820266\n+CJSW    = 2.608154E-10   PBSW    = 0.8            MJSW    = 0.102322\n+CJSWG   = 3.3E-10        PBSWG   = 0.8            MJSWG   = 0.102322\n+CF      = 0              PVTH0   = -2.199373E-3   PRDSW   = -0.9368961\n+PK2     = 1.593254E-3    WKETA   = -2.880976E-3   LKETA   = 7.165078E-3\n+PU0     = 6.777519       PUA     = 5.505418E-12   PUB     = 8.84133E-25\n+PVSAT   = 2.006286E3     PETA0   = 1.003159E-4    PKETA   = -6.759277E-3\n+NOIMOD=2.0E+00                 NOIA=1.3182567385564E+19\n+NOIB=144543.977074592 NOIC=-1.24515784572817E-12               EF=0.92 EM=41000000 )\n*\n*\n* flicker noise parameters above added manually from some other process\n* \n.MODEL CMOSP PMOS (                                LEVEL   = 49\n+VERSION = 3.1            TNOM    = 27             TOX     = 4.1E-9\n+XJ      = 1E-7           NCH     = 4.1589E17      VTH0    = -0.3906012\n+K1      = 0.5341312      K2      = 0.0395326      K3      = 0\n+K3B     = 7.4916211      W0      = 1E-6           NLX     = 1.194072E-7\n+DVT0W   = 0              DVT1W   = 0              DVT2W   = 0\n+DVT0    = 0.5060555      DVT1    = 0.2423835      DVT2    = 0.1\n+U0      = 115.6894042    UA      = 1.573746E-9    UB      = 1.874308E-21\n+UC      = -1E-10         VSAT    = 1.130982E5     A0      = 1.9976555\n+AGS     = 0.4186945      B0      = 1.949178E-7    B1      = 6.422908E-7\n+KETA    = 0.0166345      A1      = 0.4749146      A2      = 0.300003\n+RDSW    = 198.321294     PRWG    = 0.5            PRWB    = -0.4986647\n+WR      = 1              WINT    = 0              LINT    = 2.94454E-8\n+XL      = 0              XW      = -1E-8          DWG     = -2.798724E-8\n+DWB     = -4.83797E-10   VOFF    = -0.095236      NFACTOR = 2\n+CIT     = 0              CDSC    = 2.4E-4         CDSCD   = 0\n+CDSCB   = 0              ETA0    = 1.035504E-3    ETAB    = -4.358398E-4\n+DSUB    = 1.816555E-3    PCLM    = 1.3299898      PDIBLC1 = 1.766563E-3\n+PDIBLC2 = 7.728395E-7    PDIBLCB = -1E-3          DROUT   = 1.011891E-3\n+PSCBE1  = 4.872184E10    PSCBE2  = 5E-10          PVAG    = 0.0209921\n+DELTA   = 0.01           RSH     = 7.7            MOBMOD  = 1\n+PRT     = 0              UTE     = -1.5           KT1     = -0.11\n+KT1L    = 0              KT2     = 0.022          UA1     = 4.31E-9\n+UB1     = -7.61E-18      UC1     = -5.6E-11       AT      = 3.3E4\n+WL      = 0              WLN     = 1              WW      = 0\n+WWN     = 1              WWL     = 0              LL      = 0\n+LLN     = 1              LW      = 0              LWN     = 1\n+LWL     = 0              CAPMOD  = 2              XPART   = 0.5\n+CGDO    = 6.35E-10       CGSO    = 6.35E-10       CGBO    = 1E-12\n+CJ      = 1.144521E-3    PB      = 0.8468686      MJ      = 0.4099522\n+CJSW    = 2.490749E-10   PBSW    = 0.8769118      MJSW    = 0.3478565\n+CJSWG   = 4.22E-10       PBSWG   = 0.8769118      MJSWG   = 0.3478565\n+CF      = 0              PVTH0   = 2.302018E-3    PRDSW   = 9.0575312\n+PK2     = 1.821914E-3    WKETA   = 0.0222457      LKETA   = -1.495872E-3\n+PU0     = -1.5580645     PUA     = -6.36889E-11   PUB     = 1E-21\n+PVSAT   = 49.8420442     PETA0   = 2.827793E-5    PKETA   = -2.536564E-3 \n+ NOIMOD=2.0E+00                                NOIA=3.57456993317604E+18                       NOIB=2500\n+ NOIC=2.61260020285845E-11     EF=1.1388                                                       EM=41000000 )\n*\n*\n* flicker noise parameters above added manually from some other process\n*
TEXT 1032 104 Left 2 !.tran 0 50n 0 0.001n
TEXT 792 -40 Left 4 ;Pseudo - Nor
TEXT 1280 -152 Left 2 !.measure TRAN power AVG I(V1)
TEXT 1080 -48 Left 2 !.measure TRAN delay TRIG V(A) VAL=0.9 FALL=1 TARG V(Vout) VAL=0.9 RISE=1
TEXT 1296 40 Left 2 !.measure TRAN Iavg AVG I(V1)
TEXT 1320 120 Left 2 !.measure TRAN Vmax MAX V(Vout)
TEXT 1344 192 Left 2 !.measure TRAN Vmin MIN V(Vout)
TEXT 952 232 Left 2 !.measure TRAN delay_B TRIG V(B) VAL=0.9 FALL=1 TARG V(Vout) VAL=0.9 RISE=1\n.measure TRAN delay_C TRIG V(C) VAL=0.9 FALL=1 TARG V(Vout) VAL=0.9 RISE=1\n.measure TRAN delay_D TRIG V(D) VAL=0.9 FALL=1 TARG V(Vout) VAL=0.9 RISE=1
